hello python
i am learning
yesnew line.
new line.
new line.
new line.
new line.
new line.
new line.
new line.
new line.
new line.
new line.
new line.
new line.
new line.
new line.
new line.
